*HEADING
 single screw metering channel (unrolled 2.5D, generic notation) D=40mm N=1/s G=1e5 Pa/m
*NODE
 1, 0.0, 0.0, 0.0
 2, 0.0008905920628358133, 0.0, 0.0
 3, 0.0017515096429939181, 0.0, 0.0
 4, 0.002583741492742537, 0.0, 0.0
 5, 0.0033882434191741147, 0.0, 0.0
 6, 0.004165939381936917, 0.0, 0.0
 7, 0.004917722554390265, 0.0, 0.0
 8, 0.005644456349402134, 0.0, 0.0
 9, 0.006346975410967226, 0.0, 0.0
 10, 0.007026086572784376, 0.0, 0.0
 11, 0.007682569784894212, 0.0, 0.0
 12, 0.008317179009441292, 0.0, 0.0
 13, 0.008930643086589493, 0.0, 0.0
 14, 0.009523666571585137, 0.0, 0.0
 15, 0.010096930543929227, 0.0, 0.0
 16, 0.010651093389588097, 0.0, 0.0
 17, 0.01118679155714084, 0.0, 0.0
 18, 0.011704640288731954, 0.0, 0.0
 19, 0.012205234326668665, 0.0, 0.0
 20, 0.012689148596474482, 0.0, 0.0
** ... 4270 like lines cut
*ELEMENT, TYPE=C3D8, ELSET=CHANNEL
 1, 1, 2, 75, 74, 2410, 2411, 2484, 2483
 2, 2, 3, 76, 75, 2411, 2412, 2485, 2484
 3, 3, 4, 77, 76, 2412, 2413, 2486, 2485
 4, 4, 5, 78, 77, 2413, 2414, 2487, 2486
 5, 5, 6, 79, 78, 2414, 2415, 2488, 2487
 6, 6, 7, 80, 79, 2415, 2416, 2489, 2488
 7, 7, 8, 81, 80, 2416, 2417, 2490, 2489
 8, 8, 9, 82, 81, 2417, 2418, 2491, 2490
 9, 9, 10, 83, 82, 2418, 2419, 2492, 2491
 10, 10, 11, 84, 83, 2419, 2420, 2493, 2492
 11, 11, 12, 85, 84, 2420, 2421, 2494, 2493
 12, 12, 13, 86, 85, 2421, 2422, 2495, 2494
 13, 13, 14, 87, 86, 2422, 2423, 2496, 2495
 14, 14, 15, 88, 87, 2423, 2424, 2497, 2496
 15, 15, 16, 89, 88, 2424, 2425, 2498, 2497
 16, 16, 17, 90, 89, 2425, 2426, 2499, 2498
 17, 17, 18, 91, 90, 2426, 2427, 2500, 2499
 18, 18, 19, 92, 91, 2427, 2428, 2501, 2500
 19, 19, 20, 93, 92, 2428, 2429, 2502, 2501
 20, 20, 21, 94, 93, 2429, 2430, 2503, 2502
** ... 1996 like lines cut
*ELSET, ELSET=EXMIN
 1, 61, 121, 181, 241, 301, 361, 421
 481, 541, 601, 661, 721, 781, 841, 901
 961, 1021, 1081, 1141, 1201, 1261, 1321, 1381
 1441, 1513, 1585, 1657, 1729, 1801, 1873, 1945
*ELSET, ELSET=EXMAX
 60, 120, 180, 240, 300, 360, 420, 480
 540, 600, 660, 720, 780, 840, 900, 960
 1020, 1080, 1140, 1200, 1260, 1320, 1380, 1440
 1512, 1584, 1656, 1728, 1800, 1872, 1944, 2016
*ELSET, ELSET=EBARREL
 1945, 1946, 1947, 1948, 1949, 1950, 1951, 1952
 1953, 1954, 1955, 1956, 1957, 1958, 1959, 1960
 1961, 1962, 1963, 1964, 1965, 1966, 1967, 1968
 1969, 1970, 1971, 1972, 1973, 1974, 1975, 1976
 1977, 1978, 1979, 1980, 1981, 1982, 1983, 1984
 1985, 1986, 1987, 1988, 1989, 1990, 1991, 1992
 1993, 1994, 1995, 1996, 1997, 1998, 1999, 2000
 2001, 2002, 2003, 2004, 2005, 2006, 2007, 2008
 2009, 2010, 2011, 2012, 2013, 2014, 2015, 2016
*SURFACE, NAME=XPER0
 EXMIN, S6
*SURFACE, NAME=XPER1
 EXMAX, S4
*SURFACE, NAME=ZPER0
 CHANNEL, S1
*SURFACE, NAME=ZPER1
 CHANNEL, S2
*SURFACE, NAME=BARREL
 EBARREL, S5
*BOUNDARY, TYPE=PERIODIC
 XPER0, XPER1, 0.038115620559547495, 0.0, 0.0
*BOUNDARY, TYPE=PERIODIC
 ZPER0, ZPER1, 0.0, 0.0, 0.0004
*MATERIAL, NAME=MELT
*DENSITY
 1000.0
*VISCOSITY
 1000.0
*FLUID SECTION, ELSET=CHANNEL, MATERIAL=MELT
*STEP, NAME=channel
*NAVIER STOKES, STEADY STATE, HEAT TRANSFER=NONE
*CONTROLS, PARAMETERS=DISCRETIZATION
 CONVECTION=NONE, PRESSURE_VELOCITY=COUPLED
*CONTROLS, PARAMETERS=RELAXATION
 VISCOSITY=0.5
*CONTROLS, PARAMETERS=SOLVER
 TOL=1e-09, MAX_OUTER=200
*BOUNDARY, TYPE=VELOCITY
 BARREL, -0.038115620559547495, 0.0, 0.1197437535368905
*DLOAD
 CHANNEL, BF, -314159.26535897935, 0.0, -100000.0
*OUTPUT, FIELD, FORMAT=NPZ+VTK
*END STEP
